[General]
network = MM1
num-rngs = 3
**.betaProducer = ${N=1..10 step 0.1}s
warmup-period = 100s
sim-time-limit = 600s
repeat = 100
